[General]
repeat = 1
SN.deployment = "[1..49]->7x7"
SN.field_x = 300
SN.field_y = 300
SN.field_z = 5
SN.node[*].Application.collectTraceInfo = true
SN.node[*].Application.rng-0	 = 3
SN.node[*].ApplicationName = "ValuePropagationWUSN"
SN.node[*].Communication.MAC.macMaxPacketSize = 2500
SN.node[*].Communication.MAC.rng-0 = 4
SN.node[*].Communication.MAC.rng-1 = 5
SN.node[*].Communication.Radio.RadioParametersFile = "../Parameters/Radio/CC1000.txt"
SN.node[*].Communication.Radio.TxOutputPower = "-5dBm"
SN.node[*].Communication.Radio.maxPhyFrameSize = 2500
SN.node[*].Communication.Radio.rng-0 = 2
SN.node[*].Communication.Routing.maxNetFrameSize = 2500
SN.node[*].MobilityManager.rng-0 = 0
SN.node[*].ResourceManager.rng-0 = 6
SN.node[*].SensorManager.rng-0	  = 7
SN.node[*].SensorManager.rng-1	  = 8
SN.node[0].MobilityManager.speedPivo = 12.4
SN.node[0].MobilityManager.updateInterval = 100
SN.node[0].MobilityManager.xCoorDestination = 200
SN.node[0].MobilityManager.yCoorDestination = 200
SN.node[0].MobilityManagerName = "PivoMobilityManager"
SN.node[0].ResourceManager.EnergySubsystem.EnergyStorage.RechBatteries[0].mAmpereHour = 2450
SN.node[0].ResourceManager.EnergySubsystem.EnergyStorage.RechBatteries[0].maxVoltage = 2.4
SN.node[0].xCoor = 0
SN.node[0].yCoor = 0
SN.node[0].zCoor = 0.5
SN.numNodes = 50
SN.physicalProcess[*].rng-0 	 = 10
SN.wirelessChannel.bidirectionalSigma = 0
SN.wirelessChannel.onlyStaticNodes = false
SN.wirelessChannel.rng-0 	 = 1
SN.wirelessChannel.rng-2 	 = 9
SN.wirelessChannel.sigma = 0
cmdenv-event-banners = false
cmdenv-express-mode = true
cmdenv-interactive = false
cmdenv-performance-display = false
ned-path = ../../src
network = SN
num-rngs = 11
output-scalar-file = Castalia-statistics.sca
output-vector-file = Castalia-statistics.vec
seed-set = ${repetition}
sim-time-limit = 150s
